LTspice 24.0.9 for Windows
Circuit: * C:\Users\Triss\OneDrive - University of Cape Town\EEE3088_2024\Main Project\LTSpice\EEE3088F_ADC_buffer_test.asc
Start Time: Sun Mar 24 13:23:20 2024
solver = Normal
Maximum thread count: 4
tnom = 27
temp = 27
method = modified trap
WARNING: Less than two connections to node nc_01.  This node is used by v2.
Direct Newton iteration for .op point succeeded.
Total elapsed time: 0.326 seconds.

